0 298.7434 18.65 4.8 0.0 1014.8
37 298.8856 18.47783 0.0 0.0
112 299.1739 18.131 0.0 0.0
194 299.4894 17.75518 0.0 0.0
288 299.8511 17.32883 0.0 0.0
395 300.2631 16.84952 0.0 0.0
520 300.7447 16.29795 0.0 0.0
667 301.3112 15.66121 0.0 0.0
843 301.9897 14.91642 0.0 0.0
1062 302.8342 14.01735 0.0 0.0
1331 303.8715 12.95655 0.0 0.0
1664 305.1552 11.71209 0.0 0.0
2055 306.6617 10.35035 0.0 0.0
2505 308.3941 8.91772 0.0 0.0
3000 310.2983 7.50708 0.0 0.0
3500 312.2215 6.25304 0.0 0.0
4000 314.1461 5.1624 0.0 0.0
4500 316.0746 4.22427 0.0 0.0
5000 318.0098 3.42603 0.0 0.0
5500 319.9549 2.75404 0.0 0.0
6000 321.9132 2.19426 0.0 0.0
6500 323.888 1.73279 0.0 0.0
7000 325.8829 1.35627 0.0 0.0
7500 327.9011 1.05216 0.0 0.0
8000 329.946 0.80902 0.0 0.0
8500 332.0205 0.61656 0.0 0.0
9000 334.1278 0.46573 0.0 0.0
9500 336.2707 0.34868 0.0 0.0
10000 338.4518 0.25874 0.0 0.0
10500 340.6738 0.1903 0.0 0.0
11000 342.9392 0.13872 0.0 0.0
11500 345.2503 0.10023 0.0 0.0
12000 347.6096 0.07178 0.0 0.0
12500 350.0193 0.05095 0.0 0.0
13000 352.4819 0.03584 0.0 0.0
13500 354.9997 0.02499 0.0 0.0
14000 357.5751 0.01727 0.0 0.0
14500 360.2107 0.01183 0.0 0.0
15000 362.9089 0.00803 0.0 0.0
15500 371.7379 0.0 0.0 0.0
16000 380.7798 0.0 0.0 0.0
16500 390.0417 0.0 0.0 0.0
17000 399.5288 0.0 0.0 0.0
17500 409.2467 0.0 0.0 0.0
18000 419.201 0.0 0.0 0.0
18500 429.3974 0.0 0.0 0.0
19000 439.8418 0.0 0.0 0.0
19500 450.5402 0.0 0.0 0.0
20000 461.4989 0.0 0.0 0.0
20500 472.7241 0.0 0.0 0.0
21000 484.2223 0.0 0.0 0.0
21500 496.0003 0.0 0.0 0.0
22000 508.0647 0.0 0.0 0.0
22500 520.4225 0.0 0.0 0.0
23000 533.081 0.0 0.0 0.0
23500 546.0473 0.0 0.0 0.0
24000 559.329 0.0 0.0 0.0
24500 572.9338 0.0 0.0 0.0
25000 586.8695 0.0 0.0 0.0
25500 601.1442 0.0 0.0 0.0
26000 615.7661 0.0 0.0 0.0
26500 630.7436 0.0 0.0 0.0
27000 646.0854 0.0 0.0 0.0
27500 661.8004 0.0 0.0 0.0
28000 677.8976 0.0 0.0 0.0
28500 694.3864 0.0 0.0 0.0
29000 711.2762 0.0 0.0 0.0
29500 728.5769 0.0 0.0 0.0
30000 746.2983 0.0 0.0 0.0
30500 764.4509 0.0 0.0 0.0
31000 783.0449 0.0 0.0 0.0
31500 802.0912 0.0 0.0 0.0
32000 821.6008 0.0 0.0 0.0
32500 841.5849 0.0 0.0 0.0
33000 862.0551 0.0 0.0 0.0
